Version 4
SHEET 1 880 680
WIRE 256 -48 128 -48
WIRE 256 -32 256 -48
WIRE 128 16 128 -48
WIRE 256 80 256 48
WIRE 128 176 128 96
WIRE 256 176 256 160
WIRE 256 176 128 176
WIRE 128 192 128 176
FLAG 128 192 0
SYMBOL ind 240 64 R0
SYMATTR InstName L1
SYMATTR Value 0.008
SYMBOL res 240 -48 R0
SYMATTR InstName R1
SYMATTR Value 3
SYMBOL voltage 128 0 R0
WINDOW 3 -42 241 Left 2
WINDOW 123 0 0 Left 0
WINDOW 39 0 0 Left 0
SYMATTR Value PWL file=pwm_sine_wave.txt
SYMATTR InstName V1
TEXT 80 256 Left 2 !.tran 0 0.1 0 0.000001
